Version 4
SHEET 1 2780 680
WIRE 2288 -112 2144 -112
WIRE 64 -96 -288 -96
WIRE 2144 -80 2144 -112
WIRE 2288 -80 2288 -112
WIRE -288 -48 -288 -96
WIRE 1056 -48 560 -48
WIRE 1248 -48 1056 -48
WIRE 64 0 64 -16
WIRE 112 0 64 0
WIRE 320 0 272 0
WIRE 560 0 560 -48
WIRE 560 0 400 0
WIRE 1056 0 1056 -48
WIRE 560 16 560 0
WIRE 1248 16 1248 -48
WIRE 1504 16 1248 16
WIRE 1664 16 1584 16
WIRE 1696 16 1664 16
WIRE 1792 16 1760 16
WIRE 1856 16 1792 16
WIRE -272 32 -288 32
WIRE 1664 32 1664 16
WIRE 1792 32 1792 16
WIRE 1856 32 1856 16
WIRE 1888 32 1856 32
WIRE 2144 32 2144 0
WIRE 2144 32 2080 32
WIRE 2176 32 2144 32
WIRE 112 80 16 80
WIRE 336 80 272 80
WIRE 512 80 336 80
WIRE 2144 96 2080 96
WIRE 2176 96 2176 32
WIRE 2208 96 2176 96
WIRE 1056 112 1056 80
WIRE 1504 112 1056 112
WIRE 1664 112 1664 96
WIRE 1696 112 1664 112
WIRE 1792 112 1792 96
WIRE 1792 112 1760 112
WIRE 1888 128 1856 128
WIRE 2096 128 2080 128
WIRE 2144 128 2144 96
WIRE 16 144 16 80
WIRE 336 144 336 80
WIRE 400 144 336 144
WIRE 560 144 560 80
WIRE 560 144 480 144
WIRE 816 144 560 144
WIRE 928 144 896 144
WIRE 1056 144 1056 112
WIRE 1056 144 1008 144
WIRE 1664 192 1664 112
WIRE 1696 192 1664 192
WIRE 1856 192 1856 128
WIRE 1856 192 1776 192
WIRE -176 224 -320 224
WIRE -80 224 -96 224
WIRE -32 224 -80 224
WIRE 1584 224 1584 112
WIRE 1792 224 1792 112
WIRE 1792 224 1584 224
WIRE -320 256 -320 224
WIRE -80 256 -80 224
WIRE -80 352 -80 336
WIRE 0 352 -80 352
WIRE 16 352 16 240
WIRE 16 352 0 352
WIRE -320 384 -320 336
FLAG -320 384 0
FLAG -272 32 0
FLAG 0 352 0
FLAG 1056 144 0
FLAG 2288 0 0
FLAG 2144 128 0
SYMBOL ZZZ\\OPTO\\MOC3023 160 16 R0
SYMATTR InstName U1
SYMBOL res 48 -112 R0
SYMATTR InstName R1
SYMATTR Value 180
SYMBOL res -96 240 R0
SYMATTR InstName R2
SYMATTR Value 1Meg
SYMBOL res -80 208 R90
WINDOW 0 0 56 VBottom 2
WINDOW 3 32 56 VTop 2
SYMATTR InstName R3
SYMATTR Value 5
SYMBOL nmos -32 144 R0
SYMATTR InstName M1
SYMATTR Value 2N7000
SYMBOL voltage -320 240 R0
WINDOW 123 0 0 Left 0
WINDOW 39 0 0 Left 0
SYMATTR InstName V1
SYMATTR Value PULSE(0 5 5m 0 0 1m 20m)
SYMBOL voltage -288 -64 R0
WINDOW 123 0 0 Left 0
WINDOW 39 0 0 Left 0
SYMATTR InstName V2
SYMATTR Value 5
SYMBOL Misc\\TRIAC 528 16 R0
SYMATTR InstName U2
SYMATTR Value BTA06-600C
SYMBOL voltage 1056 -16 R0
WINDOW 123 0 0 Left 0
WINDOW 39 0 0 Left 0
SYMATTR InstName V3
SYMATTR Value SINE(0 330 50)
SYMBOL res 912 128 R90
WINDOW 0 0 56 VBottom 2
WINDOW 3 32 56 VTop 2
SYMATTR InstName R7
SYMATTR Value 317
SYMBOL ind 1024 128 R90
WINDOW 0 5 56 VBottom 2
WINDOW 3 32 56 VTop 2
SYMATTR InstName L1
SYMATTR Value 1.35
SYMBOL res 416 -16 R90
WINDOW 0 0 56 VBottom 2
WINDOW 3 32 56 VTop 2
SYMATTR InstName R8
SYMATTR Value 220
SYMBOL res 496 128 R90
WINDOW 0 0 56 VBottom 2
WINDOW 3 32 56 VTop 2
SYMATTR InstName R5
SYMATTR Value 220
SYMBOL Optos\\4N25 1984 96 R0
SYMATTR InstName U3
SYMBOL res 1600 0 R90
WINDOW 0 0 56 VBottom 2
WINDOW 3 32 56 VTop 2
SYMATTR InstName R4
SYMATTR Value 10k
SYMBOL res 1600 96 R90
WINDOW 0 0 56 VBottom 2
WINDOW 3 32 56 VTop 2
SYMATTR InstName R6
SYMATTR Value 10k
SYMBOL diode 1696 32 R270
WINDOW 0 32 32 VTop 2
WINDOW 3 0 32 VBottom 2
SYMATTR InstName D1
SYMATTR Value 1N4007
SYMBOL diode 1680 96 R180
WINDOW 0 24 64 Left 2
WINDOW 3 24 0 Left 2
SYMATTR InstName D2
SYMATTR Value 1N4007
SYMBOL diode 1696 128 R270
WINDOW 0 32 32 VTop 2
WINDOW 3 0 32 VBottom 2
SYMATTR InstName D3
SYMBOL diode 1808 96 R180
WINDOW 0 24 64 Left 2
WINDOW 3 24 0 Left 2
SYMATTR InstName D4
SYMATTR Value 1N4007
SYMBOL res 2128 -96 R0
SYMATTR InstName R9
SYMATTR Value 1k
SYMBOL voltage 2288 -96 R0
WINDOW 123 0 0 Left 0
WINDOW 39 0 0 Left 0
SYMATTR InstName V4
SYMATTR Value 5
SYMBOL res 2304 80 R90
WINDOW 0 0 56 VBottom 2
WINDOW 3 32 56 VTop 2
SYMATTR InstName R10
SYMATTR Value 1k
SYMBOL res 1792 176 R90
WINDOW 0 0 56 VBottom 2
WINDOW 3 32 56 VTop 2
SYMATTR InstName R11
SYMATTR Value 2k
TEXT -352 408 Left 2 !.tran 1
TEXT 336 280 Left 2 !.inc st_standard_snubberless_triacs.lib
