Version 4
SHEET 1 2672 680
WIRE -384 -240 -464 -240
WIRE -288 -240 -304 -240
WIRE -288 -208 -288 -240
WIRE -464 -176 -464 -240
WIRE -464 -176 -592 -176
WIRE -640 -128 -640 -144
WIRE -592 -128 -592 -176
WIRE -592 -128 -640 -128
WIRE -288 -112 -288 -144
WIRE -640 -64 -640 -128
WIRE -368 -32 -432 -32
WIRE -336 -32 -368 -32
WIRE -368 -16 -368 -32
WIRE -640 32 -640 16
WIRE -624 32 -640 32
WIRE -512 32 -512 -32
WIRE -640 64 -640 32
WIRE -288 64 -288 -16
WIRE -288 64 -368 64
WIRE -368 80 -368 64
WIRE -832 112 -896 112
WIRE -704 112 -752 112
WIRE -896 128 -896 112
WIRE -640 192 -640 160
WIRE -896 224 -896 208
FLAG -640 192 0
FLAG -640 -224 0
FLAG -896 224 0
FLAG -368 80 0
SYMBOL res -736 96 R90
WINDOW 0 0 56 VBottom 2
WINDOW 3 32 56 VTop 2
SYMATTR InstName R6
SYMATTR Value 2k2
SYMBOL res -624 32 R180
WINDOW 0 36 76 Left 2
WINDOW 3 36 40 Left 2
SYMATTR InstName R7
SYMATTR Value 2k2
SYMBOL voltage -640 -128 R180
WINDOW 0 24 96 Left 2
WINDOW 3 24 16 Left 2
WINDOW 123 0 0 Left 0
WINDOW 39 0 0 Left 0
SYMATTR InstName V3
SYMATTR Value 5v
SYMBOL voltage -896 112 R0
WINDOW 3 -291 -47 Left 2
WINDOW 123 0 0 Left 0
WINDOW 39 0 0 Left 0
SYMATTR InstName V4
SYMATTR Value PULSE(0 3.3 0 0 0 10m 0.1)
SYMBOL npn -704 64 R0
SYMATTR InstName Q4
SYMBOL nmos -336 -112 R0
SYMATTR InstName M2
SYMATTR Value 2N7000
SYMBOL res -352 80 R180
WINDOW 0 36 76 Left 2
WINDOW 3 36 40 Left 2
SYMATTR InstName R3
SYMATTR Value 1Meg
SYMBOL res -416 -48 R90
WINDOW 0 0 56 VBottom 2
WINDOW 3 32 56 VTop 2
SYMATTR InstName R9
SYMATTR Value 5
SYMBOL diode -304 -208 R0
SYMATTR InstName D2
SYMBOL res -288 -256 R90
WINDOW 0 0 56 VBottom 2
WINDOW 3 32 56 VTop 2
SYMATTR InstName R10
SYMATTR Value 180
SYMBOL ZZZ\\LOGIC\\CD4xxx\\cd40106b -576 -16 R0
SYMATTR InstName U1
TEXT -928 248 Left 2 !.tran 1
