Version 4
SHEET 1 3448 804
WIRE 64 -96 -288 -96
WIRE 1856 -64 1856 -80
WIRE -288 -48 -288 -96
WIRE 752 -48 560 -48
WIRE 1056 -48 752 -48
WIRE 1184 -48 1056 -48
WIRE 1344 -48 1264 -48
WIRE 1360 -48 1344 -48
WIRE 1472 -48 1424 -48
WIRE 1568 -48 1472 -48
WIRE 2992 -32 2992 -112
WIRE 1344 -16 1344 -48
WIRE 1472 -16 1472 -48
WIRE 64 0 64 -16
WIRE 112 0 64 0
WIRE 320 0 272 0
WIRE 560 0 560 -48
WIRE 560 0 400 0
WIRE 1056 0 1056 -48
WIRE 560 16 560 0
WIRE -272 32 -288 32
WIRE 1568 32 1568 -48
WIRE 1616 32 1568 32
WIRE 1856 32 1856 16
WIRE 1856 32 1808 32
WIRE 1920 32 1856 32
WIRE 2128 32 2048 32
WIRE 2416 32 2192 32
WIRE 2624 32 2528 32
WIRE 2992 64 2992 48
WIRE 3008 64 2992 64
WIRE 3232 64 3120 64
WIRE 112 80 16 80
WIRE 336 80 272 80
WIRE 512 80 336 80
WIRE 752 80 752 32
WIRE 1472 80 1472 48
WIRE 1472 80 1264 80
WIRE 1056 96 1056 80
WIRE 1184 96 1056 96
WIRE 1264 96 1264 80
WIRE 1344 96 1344 48
WIRE 1376 96 1344 96
WIRE 1472 96 1472 80
WIRE 1472 96 1440 96
WIRE 1872 96 1808 96
WIRE 2032 96 2032 32
WIRE 2032 96 1920 96
WIRE 2992 96 2992 64
WIRE 2624 112 2624 32
WIRE 2624 112 2240 112
WIRE 1616 128 1568 128
WIRE 1920 128 1920 96
WIRE 16 144 16 80
WIRE 336 144 336 80
WIRE 400 144 336 144
WIRE 560 144 560 80
WIRE 560 144 480 144
WIRE 752 144 560 144
WIRE 816 144 752 144
WIRE 1056 144 1056 96
WIRE 1056 144 896 144
WIRE 1072 144 1056 144
WIRE 2800 144 2528 144
WIRE 2928 144 2880 144
WIRE 2528 160 2528 144
WIRE 2032 176 2032 128
WIRE 2032 176 1984 176
WIRE 2240 176 2240 112
WIRE 2480 176 2352 176
WIRE 1344 192 1344 96
WIRE 1376 192 1344 192
WIRE 1568 192 1568 128
WIRE 1568 192 1456 192
WIRE 1072 208 1072 144
WIRE 1984 208 1984 176
WIRE -176 224 -368 224
WIRE -80 224 -96 224
WIRE -32 224 -80 224
WIRE 2992 224 2992 192
WIRE -80 256 -80 224
WIRE 2048 288 2048 32
WIRE 2048 288 1984 288
WIRE 1984 304 1984 288
WIRE -80 352 -80 336
WIRE 0 352 -80 352
WIRE 16 352 16 240
WIRE 16 352 0 352
WIRE -368 624 -368 224
WIRE 3232 624 3232 64
WIRE 3232 624 -368 624
FLAG -272 32 0
FLAG 0 352 0
FLAG 1072 208 0
FLAG -288 -96 5V
FLAG 1856 -80 5V
FLAG 1872 96 0
FLAG 2480 224 0
FLAG 2528 240 0
FLAG 2992 224 0
FLAG 2992 -192 0
FLAG 1984 384 0
SYMBOL ZZZ\\OPTO\\MOC3023 160 16 R0
SYMATTR InstName U1
SYMBOL res 48 -112 R0
SYMATTR InstName R1
SYMATTR Value 180
SYMBOL res -96 240 R0
SYMATTR InstName R2
SYMATTR Value 1Meg
SYMBOL res -80 208 R90
WINDOW 0 0 56 VBottom 2
WINDOW 3 32 56 VTop 2
SYMATTR InstName R3
SYMATTR Value 5
SYMBOL nmos -32 144 R0
SYMATTR InstName M1
SYMATTR Value 2N7000
SYMBOL voltage -288 -64 R0
WINDOW 123 0 0 Left 0
WINDOW 39 0 0 Left 0
SYMATTR InstName V2
SYMATTR Value 5
SYMBOL Misc\\TRIAC 528 16 R0
SYMATTR InstName U2
SYMATTR Value BTA06-600C
SYMBOL voltage 1056 -16 R0
WINDOW 123 0 0 Left 0
WINDOW 39 0 0 Left 0
WINDOW 3 -96 -97 Left 2
SYMATTR Value SINE(0 330 50)
SYMATTR InstName V3
SYMBOL res 912 128 R90
WINDOW 0 0 56 VBottom 2
WINDOW 3 32 56 VTop 2
SYMATTR InstName R7
SYMATTR Value 317
SYMBOL res 416 -16 R90
WINDOW 0 0 56 VBottom 2
WINDOW 3 32 56 VTop 2
SYMATTR InstName R8
SYMATTR Value 220
SYMBOL res 496 128 R90
WINDOW 0 0 56 VBottom 2
WINDOW 3 32 56 VTop 2
SYMATTR InstName R5
SYMATTR Value 220
SYMBOL Optos\\4N25 1712 96 R0
SYMATTR InstName U3
SYMBOL res 736 -64 R0
SYMATTR InstName R12
SYMATTR Value 200
SYMBOL cap 736 80 R0
SYMATTR InstName C1
SYMATTR Value 0.1µ
SYMBOL diode 1376 112 R270
WINDOW 0 32 32 VTop 2
WINDOW 3 0 32 VBottom 2
SYMATTR InstName D4
SYMATTR Value 1N4007
SYMBOL res 1280 -64 R90
WINDOW 0 0 56 VBottom 2
WINDOW 3 32 56 VTop 2
SYMATTR InstName R4
SYMATTR Value 10k
SYMBOL res 1280 80 R90
WINDOW 0 0 56 VBottom 2
WINDOW 3 32 56 VTop 2
SYMATTR InstName R6
SYMATTR Value 10k
SYMBOL res 1472 176 R90
WINDOW 0 0 56 VBottom 2
WINDOW 3 32 56 VTop 2
SYMATTR InstName R10
SYMATTR Value 2200
SYMBOL res 1840 -80 R0
SYMATTR InstName R11
SYMATTR Value 1k
SYMBOL diode 1360 -32 R270
WINDOW 0 32 32 VTop 2
WINDOW 3 0 32 VBottom 2
SYMATTR InstName D1
SYMATTR Value 1N4007
SYMBOL diode 1360 48 R180
WINDOW 0 24 64 Left 2
WINDOW 3 24 0 Left 2
SYMATTR InstName D2
SYMATTR Value 1N4007
SYMBOL diode 1488 48 R180
WINDOW 0 24 64 Left 2
WINDOW 3 24 0 Left 2
SYMATTR InstName D3
SYMATTR Value 1N4007
SYMBOL ZZZ\\LTspiceControlLibrary\\Math\\Functions\\delay 2432 64 R0
SYMATTR Value t=0.00072
SYMATTR InstName U4
SYMBOL e 2528 144 R0
SYMATTR InstName E1
SYMATTR Value 3.3
SYMBOL ZZZ\\LTspiceControlLibrary\\PulseModulations\\RisingEdgeDetector 2144 64 R0
WINDOW 3 -55 5 Left 2
SYMATTR Value Tedge=0.1m
SYMATTR InstName U6
SYMBOL ZZZ\\LTspiceControlLibrary\\Math\\Functions\\delay 2256 208 R0
SYMATTR Value t=5m
SYMATTR InstName U5
SYMBOL ZZZ\\LOGIC\\CD4xxx\\cd40106b 1968 -16 R0
SYMATTR InstName U7
SYMBOL res 2896 128 R90
WINDOW 0 0 56 VBottom 2
WINDOW 3 32 56 VTop 2
SYMATTR InstName R9
SYMATTR Value 2k2
SYMBOL res 3008 64 R180
WINDOW 0 36 76 Left 2
WINDOW 3 36 40 Left 2
SYMATTR InstName R13
SYMATTR Value 2k2
SYMBOL voltage 2992 -96 R180
WINDOW 0 24 96 Left 2
WINDOW 3 24 16 Left 2
WINDOW 123 0 0 Left 0
WINDOW 39 0 0 Left 0
SYMATTR InstName V1
SYMATTR Value 5v
SYMBOL npn 2928 96 R0
SYMATTR InstName Q1
SYMBOL ZZZ\\LOGIC\\CD4xxx\\cd40106b 3056 16 R0
SYMATTR InstName U8
SYMBOL ZZZ\\LOGIC\\CD4xxx\\cd40106b 1968 80 R0
SYMATTR InstName U9
SYMBOL res 1968 192 R0
SYMATTR InstName R14
SYMATTR Value 1k
SYMBOL res 1968 288 R0
SYMATTR InstName R15
SYMATTR Value 2k2
TEXT 624 -144 Left 2 !.tran 1
TEXT 336 280 Left 2 !.inc st_standard_snubberless_triacs.lib
TEXT -800 88 Left 2 !.model MYSW SW(Ron=0.01 Roff=10Meg Vt=0.5)
TEXT 2088 -80 Left 2 ;Micro
TEXT 2400 -64 Left 2 ;delay que centra\nla detección del cruce \npor cero
TEXT 2208 248 Left 2 ;delay que \nefectua el dimming
TEXT 2088 -32 Left 2 ;arreglo de señal \nproveniente de ZCD
RECTANGLE Normal 2768 448 2064 -112 2
